
@<TRIPOS>MOLECULE
M0001
22 23
SMALL
NO_CHARGES


@<TRIPOS>ATOM
    1   C1        -0.011400732     0.887782114    -1.591781526     C.3   1  noname
    2   C2        -0.396119193    -0.198860075    -0.616084317     C.3   1  noname
    3   C3         0.400664648     0.198860075     0.616084317     C.3   1  noname
    4   C4         0.016489692     1.651066507     0.771938947     C.3   1  noname
    5   C5         0.002732661     2.148464829    -0.693780217     C.3   1  noname
    6   C6         0.015946187    -0.887782114     1.591781526     C.3   1  noname
    7   C7         0.001812794    -2.148464829     0.693780217     C.3   1  noname
    8   C8        -0.011944237    -1.651066507    -0.771938947     C.3   1  noname
    9   H9         0.985096444     0.713430466    -2.013829934       H   1  noname
   10   H10       -0.719880418     0.981485984    -2.419829973       H   1  noname
   11   H11       -1.478440289    -0.136039340    -0.422261632       H   1  noname
   12   H12        1.482985744     0.136039340     0.422261632       H   1  noname
   13   H13        0.725109324     2.211084298     1.388888218       H   1  noname
   14   H14       -0.980022160     1.756864956     1.216124489       H   1  noname
   15   H15        0.886941891     2.757031008    -0.911992665       H   1  noname
   16   H16       -0.881213221     2.770062045    -0.872810961       H   1  noname
   17   H17        0.724425873    -0.981485984     2.419829973       H   1  noname
   18   H18       -0.980550990    -0.713430466     2.013829934       H   1  noname
   19   H19        0.885758676    -2.770062045     0.872810961       H   1  noname
   20   H20       -0.882396436    -2.757031008     0.911992665       H   1  noname
   21   H21        0.984567615    -1.756864956    -1.216124489       H   1  noname
   22   H22       -0.720563869    -2.211084298    -1.388888218       H   1  noname


@<TRIPOS>BOND
    1      1      2    1
    2      1      5    1
    3      2      3    1
    4      3      4    1
    5      4      5    1
    6      3      6    1
    7      6      7    1
    8      7      8    1
    9      8      2    1
   10      1      9    1
   11      1     10    1
   12      2     11    1
   13      3     12    1
   14      4     13    1
   15      4     14    1
   16      5     15    1
   17      5     16    1
   18      6     17    1
   19      6     18    1
   20      7     19    1
   21      7     20    1
   22      8     21    1
   23      8     22    1
