
@<TRIPOS>MOLECULE
M0001
22 23
SMALL
NO_CHARGES


@<TRIPOS>ATOM
    1   C1         0.466464353    -0.207963127     1.774953769     C.3   1  noname
    2   C2        -0.497094793    -1.223155569     1.174470281     C.3   1  noname
    3   C3        -1.117576807    -0.500639111    -0.019793504     C.3   1  noname
    4   C4        -0.278507685     1.112337225     1.628441026     C.3   1  noname
    5   C5        -0.976312529     1.008698319     0.273589990     C.3   1  noname
    6   C6        -0.165482460     1.583486414    -0.891180905     C.3   1  noname
    7   C7        -0.424766850     0.615830098    -2.033995401     C.3   1  noname
    8   C8        -0.382632595    -0.736653053    -1.342167285     C.3   1  noname
    9   H9         1.402195434    -0.184678481     1.204608924       H   1  noname
   10   H10        0.707309467    -0.433217398     2.817827336       H   1  noname
   11   H11       -0.001883452    -2.160707331     0.904726272       H   1  noname
   12   H12       -1.279616974    -1.457031703     1.906829603       H   1  noname
   13   H13        0.385484569     1.978124224     1.709228195       H   1  noname
   14   H14       -1.031560520     1.193326159     2.422003504       H   1  noname
   15   H15        0.906072934     1.608460038    -0.658954288       H   1  noname
   16   H16       -0.475097922     2.603307874    -1.139618325       H   1  noname
   17   H17        0.321977164     0.700364946    -2.828449990       H   1  noname
   18   H18       -1.415217717     0.793135098    -2.469254197       H   1  noname
   19   H19        0.658443885    -1.037331225    -1.173240537       H   1  noname
   20   H20       -0.860835207    -1.518100098    -1.940733468       H   1  noname
   21   H21       -1.959774565     1.491119784     0.309478055       H   1  noname
   22   H22       -2.172110092    -0.777578030    -0.131509148       H   1  noname


@<TRIPOS>BOND
    1      1      2    1
    2      2      3    1
    3      1      4    1
    4      4      5    1
    5      5      6    1
    6      6      7    1
    7      7      8    1
    8      3      5    1
    9      1      9    1
   10      1     10    1
   11      2     11    1
   12      2     12    1
   13      4     13    1
   14      4     14    1
   15      6     15    1
   16      6     16    1
   17      7     17    1
   18      7     18    1
   19      8     19    1
   20      8     20    1
   21      8      3    1
   22      5     21    1
   23      3     22    1
