@<TRIPOS>MOLECULE
M0001
34 35
SMALL
NO_CHARGES


@<TRIPOS>ATOM
    1   C1         0.376808863    -0.365579781    -3.248568077     C.3   1  noname
    2   C2         0.659087314    -1.449002412    -0.996593772     C.3   1  noname
    3   C3         1.321437376     0.976595759    -1.305723374     C.3   1  noname
    4   C4         0.769937531    -0.074943396    -0.289646534     C.3   1  noname
    5   C5         0.472172519     1.003373804    -2.591865066     C.3   1  noname
    6   C6        -0.168800619    -1.395711180    -2.275997554     C.3   1  noname
    7   C7         1.619479996    -0.191940039     1.011032449     C.3   1  noname
    8   C8         1.336786419    -1.446164012     1.853762247     C.3   1  noname
    9   C9         1.883907612    -1.091267153     3.224337700     C.3   1  noname
   10   C10        1.400956556     0.332688885     3.418076740     C.3   1  noname
   11   C11        1.423032489     0.958016283     2.022523592     C.3   1  noname
   12   C12        1.402555312     2.404644049    -0.763003243     C.3   1  noname
   13   H13        1.368491759    -0.676199692    -3.599459914       H   1  noname
   14   H14       -0.271313281    -0.308884645    -4.130325283       H   1  noname
   15   H15        1.664086878    -1.823955779    -1.229342599       H   1  noname
   16   H16        0.188100667    -2.185430611    -0.336820379       H   1  noname
   17   H17        2.340302292     0.676211896    -1.587648920       H   1  noname
   18   H18       -0.247975019     0.226139321    -0.004261934       H   1  noname
   19   H19        0.905662828     1.707659191    -3.312555507       H   1  noname
   20   H20       -0.537267728     1.367983843    -2.361189523       H   1  noname
   21   H21       -0.175459557    -2.383327614    -2.751047490       H   1  noname
   22   H22       -1.209744746    -1.154285848    -2.027974561       H   1  noname
   23   H23        2.681250760    -0.217472071     0.727107700       H   1  noname
   24   H24        1.824430606    -2.338581582     1.449554388       H   1  noname
   25   H25        0.258942844    -1.637687107     1.923796123       H   1  noname
   26   H26        2.979636449    -1.126008261     3.219636870       H   1  noname
   27   H27        1.521542581    -1.764075783     4.006652812       H   1  noname
   28   H28        2.020392133     0.886230470     4.130225995       H   1  noname
   29   H29        0.374102051     0.330867501     3.803090624       H   1  noname
   30   H30        2.255413095     1.666435298     1.959215250       H   1  noname
   31   H31        0.495403032     1.514328834     1.852855425       H   1  noname
   32   H32        1.628035849     3.116632015    -1.565144618       H   1  noname
   33   H33        0.458907769     2.711768769    -0.301202691       H   1  noname
   34   H34        2.207953639     2.506847841    -0.033100294       H   1  noname


@<TRIPOS>BOND
    1      1      5    1
    2      1      6    1
    3      2      4    1
    4      2      6    1
    5      3      5    1
    6      3      4    1
    7      7      8    1
    8      7     11    1
    9      8      9    1
   10      9     10    1
   11     10     11    1
   12      4      7    1
   13      3     12    1
   14      1     13    1
   15      1     14    1
   16      2     15    1
   17      2     16    1
   18      3     17    1
   19      4     18    1
   20      5     19    1
   21      5     20    1
   22      6     21    1
   23      6     22    1
   24      7     23    1
   25      8     24    1
   26      8     25    1
   27      9     26    1
   28      9     27    1
   29     10     28    1
   30     10     29    1
   31     11     30    1
   32     11     31    1
   33     12     32    1
   34     12     33    1
   35     12     34    1
